10

C	0.0000000	0.0000000	0.1838150
O	0.0000000	0.0000000	1.3956260
C	0.0000000	1.2832710	-0.6122710
C	0.0000000	-1.2832710	-0.6122710
H	-0.0004950	2.1348530	0.0587090
H	0.0004950	-2.1348530	0.0587090
H	0.8762960	1.3232660	-1.2586280
H	-0.8748870	1.3229690	-1.2604050
H	-0.8762960	-1.3232660	-1.2586280
H	0.8748870	-1.3229690	-1.2604050
